[Format]      =  4.0
[Frequency]   =  0
[Precision]   =  1e-008
[MinAngle]    =  30
[DoSmartMesh] =  1
[Depth]       =  140
[LengthUnits] =  millimeters
[ProblemType] =  planar
[Coordinates] =  cartesian
[ACSolver]    =  0
[PrevType]    =  0
[PrevSoln]    =  ""
[Comment]     =  "Add comments here."
[PointProps]   = 0
[BdryProps]   = 1
  <BeginBdry>
    <BdryName> = "A = 0"
    <BdryType> = 0
    <A_0> = 0
    <A_1> = 0
    <A_2> = 0
    <Phi> = 0
    <c0> = 0
    <c0i> = 0
    <c1> = 0
    <c1i> = 0
    <Mu_ssd> = 0
    <Sigma_ssd> = 0
    <innerangle> = 0
    <outerangle> = 0
  <EndBdry>
[BlockProps]  = 4
  <BeginBlock>
    <BlockName> = "Air"
    <Mu_x> = 1
    <Mu_y> = 1
    <H_c> = 0
    <H_cAngle> = 0
    <J_re> = 0
    <J_im> = 0
    <Sigma> = 0
    <d_lam> = 0
    <Phi_h> = 0
    <Phi_hx> = 0
    <Phi_hy> = 0
    <LamType> = 0
    <LamFill> = 1
    <NStrands> = 0
    <WireD> = 0
    <BHPoints> = 0
  <EndBlock>
  <BeginBlock>
    <BlockName> = "Aluminum, 6061-T6"
    <Mu_x> = 1
    <Mu_y> = 1
    <H_c> = 0
    <H_cAngle> = 0
    <J_re> = 0
    <J_im> = 0
    <Sigma> = 24.59
    <d_lam> = 0
    <Phi_h> = 0
    <Phi_hx> = 0
    <Phi_hy> = 0
    <LamType> = 0
    <LamFill> = 1
    <NStrands> = 0
    <WireD> = 0
    <BHPoints> = 0
  <EndBlock>
  <BeginBlock>
    <BlockName> = "E170"
    <Mu_x> = 274
    <Mu_y> = 274
    <H_c> = 0
    <H_cAngle> = 0
    <J_re> = 0
    <J_im> = 0
    <Sigma> = 5.5099999999999998
    <d_lam> = 0.5
    <Phi_h> = 0
    <Phi_hx> = 0
    <Phi_hy> = 0
    <LamType> = 0
    <LamFill> = 1
    <NStrands> = 0
    <WireD> = 0
    <BHPoints> = 0
  <EndBlock>
  <BeginBlock>
    <BlockName> = "18 AWG"
    <Mu_x> = 1
    <Mu_y> = 1
    <H_c> = 0
    <H_cAngle> = 0
    <J_re> = 0
    <J_im> = 0
    <Sigma> = 58
    <d_lam> = 0
    <Phi_h> = 0
    <Phi_hx> = 0
    <Phi_hy> = 0
    <LamType> = 3
    <LamFill> = 1
    <NStrands> = 1
    <WireD> = 1.0239652968433499
    <BHPoints> = 0
  <EndBlock>
[CircuitProps]  = 3
  <BeginCircuit>
    <CircuitName> = "A"
    <TotalAmps_re> = 16
    <TotalAmps_im> = 0
    <CircuitType> = 1
  <EndCircuit>
  <BeginCircuit>
    <CircuitName> = "C"
    <TotalAmps_re> = -8
    <TotalAmps_im> = 0
    <CircuitType> = 1
  <EndCircuit>
  <BeginCircuit>
    <CircuitName> = "B"
    <TotalAmps_re> = -8
    <TotalAmps_im> = 0
    <CircuitType> = 1
  <EndCircuit>
[NumPoints] = 554
14	89.500000000000682	0	1
-14	89.500000000000682	0	1
-14	-89.499999999999304	0	1
14	-89.499999999999304	0	1
-53.546628348521153	71.59300583995946	0	1
-61.20707277971087	65.165129743093985	0	1
-62.02714390866003	66.585534604255145	0	1
-54.803050211109159	72.647268961460441	0	1
71.540270235230764	53.616921882727638	0	1
65.104996459235736	61.271158924087779	0	1
66.525558998307574	62.091464791569933	0	1
72.594351723500495	54.873127283259457	0	1
14	-88.999999999999318	0	1
14	-87.999999999999304	0	1
19.0366880502479	-87.999999999999304	0	1
-14	-88.999999999999318	0	1
-14	-87.999999999999304	0	1
-19.0366880502479	-87.999999999999304	0	1
14	89.000000000000668	0	1
14	88.000000000000682	0	1
19.0366880502479	88.000000000000682	0	1
-14	89.000000000000668	0	1
-14	88.000000000000682	0	1
-19.0366880502479	88.000000000000682	0	1
61.269974073565663	-65.105991811195736	0	1
53.615740601272137	-71.541262586510356	0	1
62.091416502226373	-66.525604069012161	0	1
54.873179977770633	-72.594311892372843	0	1
3.667178090577635	58.001096019527722	0	1
3.6133949435029531	57.386351835452622	0	1
6.4565232452350747	57.757059939834782	0	1
6.4027481865678046	57.142408206685559	0	1
7.8212539831383756	58.187754742476272	0	1
10.153554804601301	71.502146612862362	0	1
2.4131220004283018	72.179346734011688	0	1
2.397970046726186	58.662230605994409	0	1
-6.4603192111990211	57.756727835845602	0	1
-6.4065360641234292	57.141983651770261	0	1
-3.6709740565415809	58.00076391553921	0	1
-3.6171989978743109	57.386112182390207	0	1
-2.4017660126896772	58.661898502005897	0	1
-2.4169179663922469	72.179014630022721	0	1
-10.157350770565239	71.501814508873395	0	1
-7.8250499491014116	58.187422638487078	0	1
-16.391522982822611	55.757450703185441	0	1
-16.231807715304971	55.161385210067692	0	1
-13.68693066921241	56.482144029472693	0	1
-13.52723942115699	55.886168178206837	0	1
-12.551809563573901	57.353630159904689	0	1
-14.913953907996071	70.66275981199351	0	1
-22.419197578262359	68.65173583154683	0	1
-17.810309761891851	55.944619278366183	0	1
-25.82467862312296	52.064011645540631	0	1
-25.563884102747121	51.504735991765301	0	1
-23.287016819419929	53.247342778414797	0	1
-23.02626151974118	52.688151233694043	0	1
-22.32047273239095	54.302700787732192	0	1
-26.957836906929519	66.999452794158969	0	1
-33.999848412204763	63.715708900433583	0	1
-27.25441232501862	52.001966970815367	0	1
-34.473164471378368	46.788633939706408	0	1
-34.11921480767797	46.283141433006222	0	1
-32.179538747368952	48.394647961489682	0	1
-31.825642313898701	47.889231475436638	0	1
-31.410939631938621	49.601811330616783	0	1
-38.182619672770223	61.30040130653196	0	1
-44.547431056896578	56.843712396084811	0	1
-35.87040336104792	46.479261211121411	0	1
-42.074200661433217	40.091607267806459	0	1
-41.637850435832199	39.655257042206358	0	1
-40.094301674111193	42.071506255128952	0	1
-39.658017070899859	41.635221651918073	0	1
-39.547001025472127	43.393795935948219	0	1
-48.247242861191808	53.738768144707137	0	1
-53.741462551011409	48.244548454887081	0	1
-43.396490342251582	39.54430661916831	0	1
-48.396833554963898	32.17641739640522	0	1
-47.891341048263257	31.82246773270526	0	1
-46.790819533181093	34.47004312041463	0	1
-46.285403047127602	34.116146686945292	0	1
-46.48144680459518	35.867282010086001	0	1
-56.84589798955858	44.544309705932392	0	1
-61.3025869000071	38.179498321807387	0	1
-49.60399692409009	31.407818280976699	0	1
-53.248953150906353	23.28356336446814	0	1
-52.689677497130099	23.022768844093662	0	1
-52.065622018032172	25.821225168170709	0	1
-51.506430473311411	25.56046986849196	0	1
-52.003577343306461	27.250958870067731	0	1
-63.717319272924669	33.99639495725296	0	1
-67.001063166650056	26.954383451978181	0	1
-54.304311160222817	22.317019277439609	0	1
-56.483130250628157	13.68325004175221	0	1
-55.887064757510423	13.523534774235481	0	1
-55.758436924341368	16.387842355361499	0	1
-55.162461073075981	16.228151107306982	0	1
-55.945605499522571	17.80662913443302	0	1
-68.652722052702302	22.415516950802161	0	1
-70.663746033149891	14.91027328053587	0	1
-57.354616381060161	12.548128936115059	0	1
-58.001096019528632	3.6671780905771811	0	1
-57.386351835453752	3.6133949435029531	0	1
-57.757059939835919	6.4565232452341661	0	1
-57.142408206686007	6.4027481865673499	0	1
-58.187754742477409	7.8212539831379209	0	1
-71.502146612863726	10.15355480460039	0	1
-72.179346734012583	2.4131220004273919	0	1
-58.662230605995319	2.397970046726186	0	1
-57.756727835845602	-6.4603192111990211	0	1
-57.141983651770722	-6.4065360641234292	0	1
-58.000763915539657	-3.67097405654249	0	1
-57.386112182391571	-3.6171989978747661	0	1
-58.6618985020068	-2.4017660126896772	0	1
-72.179014630023175	-2.4169179663927021	0	1
-71.501814508874304	-10.157350770566151	0	1
-58.187422638488442	-7.8250499491014116	0	1
-55.757450703185441	-16.391522982821691	0	1
-55.161385210068147	-16.231807715304061	0	1
-56.48214402947314	-13.68693066921151	0	1
-55.886168178206837	-13.527239421156541	0	1
-57.353630159905151	-12.551809563573441	0	1
-70.662759811993965	-14.913953907995159	0	1
-68.65173583154683	-22.41919757826145	0	1
-55.944619278366183	-17.8103097618914	0	1
-52.064011645540631	-25.82467862312296	0	1
-51.504735991765301	-25.563884102747121	0	1
-53.247342778414797	-23.287016819419929	0	1
-52.688151233694043	-23.02626151974118	0	1
-54.302700787732192	-22.32047273239095	0	1
-66.999452794158969	-26.957836906929519	0	1
-63.715708900433583	-33.999848412204763	0	1
-52.001966970815367	-27.25441232501862	0	1
-46.788633939706408	-34.473164471378368	0	1
-46.283141433006222	-34.11921480767797	0	1
-48.394647961489682	-32.179538747368952	0	1
-47.889231475436638	-31.825642313898701	0	1
-49.601811330616783	-31.410939631938621	0	1
-61.30040130653196	-38.182619672770223	0	1
-56.843712396084811	-44.547431056896578	0	1
-46.479261211121411	-35.87040336104792	0	1
-40.091607267806459	-42.074200661433217	0	1
-39.655257042206358	-41.637850435832199	0	1
-42.071506255128952	-40.094301674111193	0	1
-41.635221651918073	-39.658017070899859	0	1
-43.393795935948219	-39.547001025472127	0	1
-53.738768144707137	-48.247242861191808	0	1
-48.244548454887081	-53.741462551011409	0	1
-39.54430661916831	-43.396490342251582	0	1
-32.17641739640522	-48.396833554963898	0	1
-31.82246773270526	-47.891341048263257	0	1
-34.47004312041463	-46.790819533181093	0	1
-34.116146686945292	-46.285403047127602	0	1
-35.867282010086001	-46.48144680459518	0	1
-44.544309705932392	-56.84589798955858	0	1
-38.179498321807387	-61.3025869000071	0	1
-31.407818280976699	-49.60399692409009	0	1
-23.28356336446814	-53.248953150906353	0	1
-23.022768844093662	-52.68967749713056	0	1
-25.821225168170709	-52.06562201803262	0	1
-25.560469868492419	-51.506430473311411	0	1
-27.250958870067731	-52.003577343306908	0	1
-33.99639495725296	-63.717319272925572	0	1
-26.954383451977719	-67.001063166650511	0	1
-22.317019277440071	-54.304311160223278	0	1
-13.68325004175221	-56.483130250628612	0	1
-13.523534774235481	-55.887064757510871	0	1
-16.387842355361499	-55.758436924341822	0	1
-16.22815110730744	-55.162461073076429	0	1
-17.80662913443302	-55.945605499523019	0	1
-22.415516950801699	-68.652722052702757	0	1
-14.91027328053587	-70.663746033150346	0	1
-12.548128936115519	-57.35461638106063	0	1
-3.6671780905771811	-58.001096019529079	0	1
-3.6133949435029531	-57.386351835453297	0	1
-6.4565232452341661	-57.757059939835472	0	1
-6.402748186566896	-57.142408206686468	0	1
-7.8212539831379209	-58.187754742477409	0	1
-10.153554804601301	-71.502146612863271	0	1
-2.4131220004278471	-72.179346734012583	0	1
-2.397970046726186	-58.662230605995319	0	1
6.4603192111990211	-57.75672783584605	0	1
6.4065360641238831	-57.141983651770261	0	1
3.6709740565420361	-58.000763915539657	0	1
3.6171989978747661	-57.386112182391571	0	1
2.4017660126896772	-58.6618985020068	0	1
2.4169179663922469	-72.179014630023175	0	1
10.157350770565699	-71.501814508874304	0	1
7.8250499491014116	-58.187422638487988	0	1
16.391522982821691	-55.75745070318635	0	1
16.231807715304061	-55.161385210069049	0	1
13.68693066921241	-56.482144029474057	0	1
13.52723942115699	-55.886168178207299	0	1
12.551809563573441	-57.353630159906061	0	1
14.913953907996071	-70.662759811994874	0	1
22.419197578262359	-68.65173583154774	0	1
17.8103097618914	-55.944619278367547	0	1
25.824678623122509	-52.064011645540631	0	1
25.563884102747121	-51.504735991765749	0	1
23.287016819420391	-53.247342778414797	0	1
23.026261519741642	-52.688151233695407	0	1
22.32047273239095	-54.302700787733102	0	1
26.957836906930432	-66.999452794158969	0	1
33.99984841220521	-63.715708900434038	0	1
27.25441232501862	-52.001966970816738	0	1
34.473164471377913	-46.788633939707317	0	1
34.119214807677061	-46.283141433007579	0	1
32.179538747368952	-48.394647961490591	0	1
31.825642313897792	-47.889231475436638	0	1
31.41093963193816	-49.601811330617693	0	1
38.182619672770223	-61.300401306532883	0	1
44.54743105689613	-56.843712396084811	0	1
35.870403361047472	-46.479261211122321	0	1
42.074200661432307	-40.091607267806459	0	1
41.637850435832199	-39.655257042206358	0	1
40.094301674111193	-42.07150625512849	0	1
39.658017070900769	-41.635221651918982	0	1
39.547001025472127	-43.393795935948667	0	1
48.247242861192262	-53.738768144706228	0	1
53.741462551011409	-48.244548454887081	0	1
43.396490342251582	-39.54430661916922	0	1
48.396833554963898	-32.176417396406123	0	1
47.891341048262802	-31.822467732706631	0	1
46.790819533181093	-34.470043120415539	0	1
46.28540304712714	-34.116146686945292	0	1
46.481446804594263	-35.86728201008691	0	1
56.845897989559028	-44.544309705933301	0	1
61.302586900006652	-38.179498321807387	0	1
49.603996924089643	-31.40781828097715	0	1
53.248953150905429	-23.28356336446814	0	1
52.689677497130099	-23.022768844093662	0	1
52.065622018032172	-25.821225168170709	0	1
51.506430473312321	-25.560469868492419	0	1
52.003577343306908	-27.25095887006864	0	1
63.717319272925117	-33.996394957252512	0	1
67.001063166650056	-26.954383451977719	0	1
54.304311160223733	-22.317019277440519	0	1
56.483130250628157	-13.683250041753119	0	1
55.887064757510423	-13.52353477423685	0	1
55.758436924341368	-16.387842355362409	0	1
55.162461073075058	-16.22815110730744	0	1
55.945605499522117	-17.80662913443393	0	1
68.652722052702757	-22.415516950802161	0	1
70.663746033149437	-14.91027328053587	0	1
57.35461638106063	-12.548128936115971	0	1
58.001096019527722	-3.667178090577635	0	1
57.386351835453297	-3.6133949435024979	0	1
57.757059939835017	-6.4565232452332557	0	1
57.142408206686923	-6.402748186566896	0	1
58.187754742477409	-7.8212539831379209	0	1
71.502146612862816	-10.15355480459948	0	1
72.179346734012142	-2.413122000426938	0	1
58.662230605995319	-2.397970046726186	0	1
57.75672783584605	6.4603192111985663	0	1
57.141983651770261	6.4065360641229736	0	1
58.00076391553921	3.6709740565420361	0	1
57.386112182390207	3.6171989978743109	0	1
58.661898502006352	2.401766012689222	0	1
72.179014630023175	2.4169179663927021	0	1
71.501814508873849	10.157350770565699	0	1
58.187422638488442	7.8250499491009569	0	1
55.757450703184979	16.391522982821691	0	1
55.161385210068147	16.231807715304971	0	1
56.482144029472238	13.68693066921332	0	1
55.886168178207747	13.527239421157899	0	1
57.353630159905613	12.55180956357435	0	1
70.662759811993055	14.91395390799698	0	1
68.65173583154683	22.419197578262811	0	1
55.944619278366652	17.810309761891851	0	1
52.064011645541079	25.82467862312274	0	1
51.504735991765301	25.563884102746449	0	1
53.24734277841435	23.28701681942016	0	1
52.688151233694043	23.026261519740501	0	1
54.302700787732647	22.32047273239073	0	1
66.999452794158969	26.957836906930201	0	1
63.715708900433583	33.999848412204983	0	1
52.001966970816738	27.254412325017942	0	1
46.788633939706408	34.473164471377231	0	1
46.283141433006669	34.119214807677743	0	1
48.394647961489682	32.179538747369179	0	1
47.8892314754371	31.825642313898928	0	1
49.601811330617693	31.410939631938849	0	1
61.300401306531512	38.182619672771352	0	1
56.843712396084349	44.547431056896812	0	1
46.479261211121411	35.870403361048147	0	1
40.091607267806921	42.074200661433679	0	1
39.655257042205911	41.637850435831751	0	1
42.07150625512849	40.094301674111193	0	1
41.635221651918073	39.658017070899412	0	1
43.393795935948219	39.547001025472127	0	1
53.738768144706683	48.247242861192262	0	1
48.244548454886633	53.741462551011409	0	1
39.54430661916922	43.396490342251582	0	1
32.17641739640522	48.396833554962541	0	1
31.822467732705721	47.891341048263257	0	1
34.47004312041463	46.790819533181093	0	1
34.11614668694483	46.285403047128057	0	1
35.867282010086463	46.48144680459518	0	1
44.544309705931482	56.845897989559489	0	1
38.179498321806477	61.302586900006652	0	1
31.407818280975789	49.60399692409009	0	1
23.283563364468591	53.2489531509068	0	1
23.022768844093211	52.689677497130099	0	1
25.8212251681698	52.06562201803262	0	1
25.560469868492419	51.506430473310957	0	1
27.250958870067279	52.003577343306908	0	1
33.996394957252051	63.717319272925572	0	1
26.95438345197681	67.001063166650056	0	1
22.317019277440519	54.304311160223278	0	1
13.68325004175267	56.483130250627262	0	1
13.523534774235481	55.887064757510871	0	1
16.387842355361499	55.758436924341368	0	1
16.228151107306068	55.162461073076429	0	1
17.80662913443302	55.945605499522571	0	1
22.415516950800338	68.652722052703211	0	1
14.910273280534961	70.663746033149437	0	1
12.548128936113701	57.35461638106063	0	1
-4	25.150000000000318	0	1
4	25.150000000000091	0	1
-5	24.149999999999871	0	1
-5	20.396078054371181	0	1
5	24.149999999999871	0	1
4.9999999999995453	20.396078054371181	0	1
-4	-25.150000000000318	0	1
4	-25.150000000000091	0	1
-5	-24.149999999999871	0	1
-5	-20.396078054371181	0	1
5	-24.149999999999871	0	1
4.9999999999995453	-20.396078054371181	0	1
4.5470000000000002e-013	56.900000000000773	0	1
3.0990000000001601	54.300000000000857	0	1
-3.0989999999997049	54.300000000000857	0	1
1.0155000000004291	35.915500000000748	0	1
-1.0154999999995189	35.915500000000748	0	1
-12.66143837584695	55.473398834528773	0	1
-9.0615824397245888	53.628178457674487	0	1
-15.104185708202751	52.248994010336901	0	1
-7.0019095513407592	35.24099378756091	0	1
-8.9819881635185084	34.78905386943552	0	1
-24.687979642958911	51.265131045857288	0	1
-20.767779499149128	50.267217305862687	0	1
-26.351984810611611	47.578006447742148	0	1
-14.66821427574086	32.799357775130368	0	1
-16.498082134336979	31.918140083481379	0	1
-35.476563070640168	44.486216659713129	0	1
-31.432593836684649	44.385649096280297	0	1
-36.278385943132889	40.521260029288442	0	1
-21.59899381275363	28.713025733570699	0	1
-23.18689374308542	27.446718183545279	0	1
-44.486204276053741	35.476578599256761	0	1
-40.521247365741139	36.278400087717728	0	1
-44.38563812423353	31.432609330196101	0	1
-27.446710089791392	23.186903323795381	0	1
-28.713018194098819	21.599003835488482	0	1
-51.265122428123497	24.687997537863801	0	1
-47.577997249161847	26.35200141846644	0	1
-50.267210056538261	20.767797045715721	0	1
-31.918134324563201	16.498093275868079	0	1
-32.799352654956692	14.668225724874899	0	1
-55.473394414849729	12.66145773971539	0	1
-52.248988737978827	15.10420394654011	0	1
-53.628175294583343	9.0616011594884185	0	1
-34.789050734128978	8.9820003071881729	0	1
-35.240991343432142	7.0019218527668272	0	1
-56.899999999997362	1.9861846340100001e-005	0	1
-54.299998918243091	3.0990189542744702	0	1
-54.300001081753628	-3.0989810457253948	0	1
-35.915499645523603	1.015512536873757	0	1
-35.915500354475633	-1.015487463126646	0	1
12.66143837584695	55.473398834528773	0	1
9.0615824397245888	53.628178457674487	0	1
15.104185708202751	52.248994010336901	0	1
7.0019095513407592	35.24099378756091	0	1
8.9819881635185084	34.78905386943552	0	1
24.687979642958911	51.265131045857288	0	1
20.767779499149128	50.267217305862687	0	1
26.351984810611611	47.578006447742148	0	1
14.66821427574086	32.799357775130368	0	1
16.498082134336979	31.918140083481379	0	1
35.476563070640168	44.486216659713129	0	1
31.432593836684649	44.385649096280297	0	1
36.278385943132889	40.521260029288442	0	1
21.59899381275363	28.713025733570699	0	1
23.18689374308542	27.446718183545279	0	1
44.486204276053741	35.476578599256761	0	1
40.521247365741139	36.278400087717728	0	1
44.38563812423353	31.432609330196101	0	1
27.446710089791392	23.186903323795381	0	1
28.713018194098819	21.599003835488482	0	1
51.265122428123497	24.687997537863801	0	1
47.577997249161847	26.35200141846644	0	1
50.267210056538261	20.767797045715721	0	1
31.918134324563201	16.498093275868079	0	1
32.799352654956692	14.668225724874899	0	1
55.473394414849729	12.66145773971539	0	1
52.248988737978827	15.10420394654011	0	1
53.628175294583343	9.0616011594884185	0	1
34.789050734128978	8.9820003071881729	0	1
35.240991343432142	7.0019218527668272	0	1
56.899999999997362	1.9861846340100001e-005	0	1
54.299998918243091	3.0990189542744702	0	1
54.300001081753628	-3.0989810457253948	0	1
35.915499645523603	1.015512536873757	0	1
35.915500354475633	-1.015487463126646	0	1
-12.66143837584695	-55.473398834528773	0	1
-9.0615824397245888	-53.628178457674487	0	1
-15.104185708202751	-52.248994010336901	0	1
-7.0019095513407592	-35.24099378756091	0	1
-8.9819881635185084	-34.78905386943552	0	1
-24.687979642958911	-51.265131045857288	0	1
-20.767779499149128	-50.267217305862687	0	1
-26.351984810611611	-47.578006447742148	0	1
-14.66821427574086	-32.799357775130368	0	1
-16.498082134336979	-31.918140083481379	0	1
-35.476563070640168	-44.486216659713129	0	1
-31.432593836684649	-44.385649096280297	0	1
-36.278385943132889	-40.521260029288442	0	1
-21.59899381275363	-28.713025733570699	0	1
-23.18689374308542	-27.446718183545279	0	1
-44.486204276053741	-35.476578599256761	0	1
-40.521247365741139	-36.278400087717728	0	1
-44.38563812423353	-31.432609330196101	0	1
-27.446710089791392	-23.186903323795381	0	1
-28.713018194098819	-21.599003835488482	0	1
-51.265122428123497	-24.687997537863801	0	1
-47.577997249161847	-26.35200141846644	0	1
-50.267210056538261	-20.767797045715721	0	1
-31.918134324563201	-16.498093275868079	0	1
-32.799352654956692	-14.668225724874899	0	1
-55.473394414849729	-12.66145773971539	0	1
-52.248988737978827	-15.10420394654011	0	1
-53.628175294583343	-9.0616011594884185	0	1
-34.789050734128978	-8.9820003071881729	0	1
-35.240991343432142	-7.0019218527668272	0	1
4.5470000000000002e-013	-56.900000000000773	0	1
3.0990000000001601	-54.300000000000857	0	1
-3.0989999999997049	-54.300000000000857	0	1
1.0155000000004291	-35.915500000000748	0	1
-1.0154999999995189	-35.915500000000748	0	1
12.66143837584695	-55.473398834528773	0	1
9.0615824397245888	-53.628178457674487	0	1
15.104185708202751	-52.248994010336901	0	1
7.0019095513407592	-35.24099378756091	0	1
8.9819881635185084	-34.78905386943552	0	1
24.687979642958911	-51.265131045857288	0	1
20.767779499149128	-50.267217305862687	0	1
26.351984810611611	-47.578006447742148	0	1
14.66821427574086	-32.799357775130368	0	1
16.498082134336979	-31.918140083481379	0	1
35.476563070640168	-44.486216659713129	0	1
31.432593836684649	-44.385649096280297	0	1
36.278385943132889	-40.521260029288442	0	1
21.59899381275363	-28.713025733570699	0	1
23.18689374308542	-27.446718183545279	0	1
44.486204276053741	-35.476578599256761	0	1
40.521247365741139	-36.278400087717728	0	1
44.38563812423353	-31.432609330196101	0	1
27.446710089791392	-23.186903323795381	0	1
28.713018194098819	-21.599003835488482	0	1
51.265122428123497	-24.687997537863801	0	1
47.577997249161847	-26.35200141846644	0	1
50.267210056538261	-20.767797045715721	0	1
31.918134324563201	-16.498093275868079	0	1
32.799352654956692	-14.668225724874899	0	1
55.473394414849729	-12.66145773971539	0	1
52.248988737978827	-15.10420394654011	0	1
53.628175294583343	-9.0616011594884185	0	1
34.789050734128978	-8.9820003071881729	0	1
35.240991343432142	-7.0019218527668272	0	1
-22.00000000000993	88.300622874358496	0	1
-90.978021978021388	-1.9998792379909291	0	1
-90.978021978021388	1.9998792379922934	0	1
-22.00000000000993	-88.300622874357131	0	1
90.978021978021388	1.9998792379922934	0	1
90.978021978021388	-1.9998792379909291	0	1
57.5	6.8209999999999999e-013	0	1
-57.5	6.8209999999999999e-013	0	1
-86.49148120205345	28.288225102913149	0	1
-84.439639148147705	33.925614814336178	0	1
22.000000000010036	88.300622874358481	0	1
19.751572629778821	-87.548530601833917	0	1
22.000000000010132	-88.300622874357089	0	1
-19.751572629778813	-87.548530601833619	0	1
19.751572629778675	87.548530601835154	0	1
-19.751572629779155	87.548530601834528	0	1
6.6219384630886138	75.710963075523523	0	1
-6.6257344290538587	75.710630971534414	0	1
-19.672087733353337	73.409869656903084	0	1
-32.120714606430212	68.878586599933115	0	1
-43.593369820058371	62.254462543370757	0	1
-53.741462551011111	53.738768144706398	0	1
-62.256648136846152	43.590248469093218	0	1
-68.880196972424784	32.117261151477614	0	1
-73.41085587805992	19.668407105890179	0	1
-75.710963075523992	6.6219384630880844	0	1
-75.710630971534783	-6.6257344290546971	0	1
-73.409869656903055	-19.672087733352985	0	1
-68.878586599933286	-32.12071460642985	0	1
-62.25446254337097	-43.593369820058072	0	1
-53.738768144706178	-53.741462551011331	0	1
-43.59024846909292	-62.256648136846358	0	1
-32.117261151477422	-68.880196972424869	0	1
-19.668407105892022	-73.410855878060119	0	1
-6.6219384630877256	-75.71096307552402	0	1
6.6257344290552052	-75.710630971535281	0	1
19.672087733351635	-73.409869656903865	0	1
32.120714606430575	-68.878586599933399	0	1
43.593369820056154	-62.254462543371673	0	1
53.741462551011772	-53.73876814470573	0	1
62.256648136844539	-43.590248469094696	0	1
68.880196972425125	-32.117261151476889	0	1
73.410855878058285	-19.668407105893781	0	1
75.710963075523608	-6.6219384630872096	0	1
75.710630971534485	6.6257344290529039	0	1
73.4098696569026	19.672087733353443	0	1
68.878586599933286	32.120714606429623	0	1
62.254462543370522	43.59336982005739	0	1
53.738768144706604	53.74146255101045	0	1
43.590248469092323	62.256648136845243	0	1
32.117261151477692	68.880196972424528	0	1
19.668407105890665	73.410855878058769	0	1
57	6.8209999999999999e-013	0	1
-57	6.8209999999999999e-013	0	1
-3.0089560555126239e-012	34.900000000000773	0	1
-7.7659788983701477	34.024984522408495	0	1
-15.142539359217293	31.443815000006239	0	1
-21.759790002909	27.285921993389831	0	1
-27.285914397793665	21.759799527485281	0	1
-31.443809714264841	15.142550335171077	0	1
-34.024981811570825	7.7659907753219857	0	1
-34.8999999999997	1.2182393002726212e-005	0	1
7.7659788983700375	34.024984522408516	0	1
15.142539359217199	31.443815000006285	0	1
21.759790002909	27.285921993389834	0	1
27.285914397793775	21.759799527485143	0	1
31.443809714264617	15.142550335171542	0	1
34.024981811570775	7.7659907753222059	0	1
34.8999999999997	1.2182393233997268e-005	0	1
-7.7659788983701468	-34.024984522408495	0	1
-15.142539359217476	-31.443815000006154	0	1
-21.75979000290911	-27.285921993389742	0	1
-27.285914397793775	-21.759799527485143	0	1
-31.443809714264841	-15.142550335171078	0	1
-34.024981811570825	-7.7659907753219874	0	1
-3.0080308708588129e-012	-34.900000000000773	0	1
7.7659788983701477	-34.024984522408495	0	1
15.142539359217201	-31.443815000006285	0	1
21.759790002909	-27.285921993389834	0	1
27.285914397793775	-21.759799527485143	0	1
31.443809714264617	-15.142550335171542	0	1
34.024981811570775	-7.7659907753222042	0	1
-141	107	0	0
-141	-106	0	0
141	106	0	0
141	-106	0	0
[NumSegments] = 357
0	1	-1	0	0	1
2	3	-1	0	0	1
4	5	-1	0	0	1
5	6	-1	0	0	1
4	7	-1	0	0	1
8	9	-1	0	0	1
9	10	-1	0	0	1
8	11	-1	0	0	1
3	12	-1	0	0	1
13	14	-1	0	0	1
2	15	-1	0	0	1
16	17	-1	0	0	1
0	18	-1	0	0	1
19	20	-1	0	0	1
1	21	-1	0	0	1
22	23	-1	0	0	1
24	25	-1	0	0	1
24	26	-1	0	0	1
25	27	-1	0	0	1
28	29	-1	0	0	1
30	31	-1	0	0	1
32	33	-1	0	0	1
34	35	-1	0	0	1
35	28	-1	0	0	1
30	32	-1	0	0	1
36	37	-1	0	0	1
38	39	-1	0	0	1
40	41	-1	0	0	1
42	43	-1	0	0	1
43	36	-1	0	0	1
38	40	-1	0	0	1
44	45	-1	0	0	1
46	47	-1	0	0	1
48	49	-1	0	0	1
50	51	-1	0	0	1
51	44	-1	0	0	1
46	48	-1	0	0	1
52	53	-1	0	0	1
54	55	-1	0	0	1
56	57	-1	0	0	1
58	59	-1	0	0	1
59	52	-1	0	0	1
54	56	-1	0	0	1
60	61	-1	0	0	1
62	63	-1	0	0	1
64	65	-1	0	0	1
66	67	-1	0	0	1
67	60	-1	0	0	1
62	64	-1	0	0	1
68	69	-1	0	0	1
70	71	-1	0	0	1
72	73	-1	0	0	1
74	75	-1	0	0	1
75	68	-1	0	0	1
70	72	-1	0	0	1
76	77	-1	0	0	1
78	79	-1	0	0	1
80	81	-1	0	0	1
82	83	-1	0	0	1
83	76	-1	0	0	1
78	80	-1	0	0	1
84	85	-1	0	0	1
86	87	-1	0	0	1
88	89	-1	0	0	1
90	91	-1	0	0	1
91	84	-1	0	0	1
86	88	-1	0	0	1
92	93	-1	0	0	1
94	95	-1	0	0	1
96	97	-1	0	0	1
98	99	-1	0	0	1
99	92	-1	0	0	1
94	96	-1	0	0	1
100	101	-1	0	0	1
102	103	-1	0	0	1
104	105	-1	0	0	1
106	107	-1	0	0	1
107	100	-1	0	0	1
102	104	-1	0	0	1
108	109	-1	0	0	1
110	111	-1	0	0	1
112	113	-1	0	0	1
114	115	-1	0	0	1
115	108	-1	0	0	1
110	112	-1	0	0	1
116	117	-1	0	0	1
118	119	-1	0	0	1
120	121	-1	0	0	1
122	123	-1	0	0	1
123	116	-1	0	0	1
118	120	-1	0	0	1
124	125	-1	0	0	1
126	127	-1	0	0	1
128	129	-1	0	0	1
130	131	-1	0	0	1
131	124	-1	0	0	1
126	128	-1	0	0	1
132	133	-1	0	0	1
134	135	-1	0	0	1
136	137	-1	0	0	1
138	139	-1	0	0	1
139	132	-1	0	0	1
134	136	-1	0	0	1
140	141	-1	0	0	1
142	143	-1	0	0	1
144	145	-1	0	0	1
146	147	-1	0	0	1
147	140	-1	0	0	1
142	144	-1	0	0	1
148	149	-1	0	0	1
150	151	-1	0	0	1
152	153	-1	0	0	1
154	155	-1	0	0	1
155	148	-1	0	0	1
150	152	-1	0	0	1
156	157	-1	0	0	1
158	159	-1	0	0	1
160	161	-1	0	0	1
162	163	-1	0	0	1
163	156	-1	0	0	1
158	160	-1	0	0	1
164	165	-1	0	0	1
166	167	-1	0	0	1
168	169	-1	0	0	1
170	171	-1	0	0	1
171	164	-1	0	0	1
166	168	-1	0	0	1
172	173	-1	0	0	1
174	175	-1	0	0	1
176	177	-1	0	0	1
178	179	-1	0	0	1
179	172	-1	0	0	1
174	176	-1	0	0	1
180	181	-1	0	0	1
182	183	-1	0	0	1
184	185	-1	0	0	1
186	187	-1	0	0	1
187	180	-1	0	0	1
182	184	-1	0	0	1
188	189	-1	0	0	1
190	191	-1	0	0	1
192	193	-1	0	0	1
194	195	-1	0	0	1
195	188	-1	0	0	1
190	192	-1	0	0	1
196	197	-1	0	0	1
198	199	-1	0	0	1
200	201	-1	0	0	1
202	203	-1	0	0	1
203	196	-1	0	0	1
198	200	-1	0	0	1
204	205	-1	0	0	1
206	207	-1	0	0	1
208	209	-1	0	0	1
210	211	-1	0	0	1
211	204	-1	0	0	1
206	208	-1	0	0	1
212	213	-1	0	0	1
214	215	-1	0	0	1
216	217	-1	0	0	1
218	219	-1	0	0	1
219	212	-1	0	0	1
214	216	-1	0	0	1
220	221	-1	0	0	1
222	223	-1	0	0	1
224	225	-1	0	0	1
226	227	-1	0	0	1
227	220	-1	0	0	1
222	224	-1	0	0	1
228	229	-1	0	0	1
230	231	-1	0	0	1
232	233	-1	0	0	1
234	235	-1	0	0	1
235	228	-1	0	0	1
230	232	-1	0	0	1
236	237	-1	0	0	1
238	239	-1	0	0	1
240	241	-1	0	0	1
242	243	-1	0	0	1
243	236	-1	0	0	1
238	240	-1	0	0	1
244	245	-1	0	0	1
246	247	-1	0	0	1
248	249	-1	0	0	1
250	251	-1	0	0	1
251	244	-1	0	0	1
246	248	-1	0	0	1
252	253	-1	0	0	1
254	255	-1	0	0	1
256	257	-1	0	0	1
258	259	-1	0	0	1
259	252	-1	0	0	1
254	256	-1	0	0	1
260	261	-1	0	0	1
262	263	-1	0	0	1
264	265	-1	0	0	1
266	267	-1	0	0	1
267	260	-1	0	0	1
262	264	-1	0	0	1
268	269	-1	0	0	1
270	271	-1	0	0	1
272	273	-1	0	0	1
274	275	-1	0	0	1
275	268	-1	0	0	1
270	272	-1	0	0	1
276	277	-1	0	0	1
278	279	-1	0	0	1
280	281	-1	0	0	1
282	283	-1	0	0	1
283	276	-1	0	0	1
278	280	-1	0	0	1
284	285	-1	0	0	1
286	287	-1	0	0	1
288	289	-1	0	0	1
290	291	-1	0	0	1
291	284	-1	0	0	1
286	288	-1	0	0	1
292	293	-1	0	0	1
294	295	-1	0	0	1
296	297	-1	0	0	1
298	299	-1	0	0	1
299	292	-1	0	0	1
294	296	-1	0	0	1
300	301	-1	0	0	1
302	303	-1	0	0	1
304	305	-1	0	0	1
306	307	-1	0	0	1
307	300	-1	0	0	1
302	304	-1	0	0	1
308	309	-1	0	0	1
310	311	-1	0	0	1
312	313	-1	0	0	1
314	315	-1	0	0	1
315	308	-1	0	0	1
310	312	-1	0	0	1
316	317	-1	0	0	1
318	319	-1	0	0	1
320	321	-1	0	0	1
322	323	-1	0	0	1
324	325	-1	0	0	1
326	327	-1	0	0	1
328	329	-1	0	0	1
328	330	-1	0	0	1
331	329	-1	0	0	1
330	332	-1	0	0	1
333	334	-1	0	0	1
333	335	-1	0	0	1
336	334	-1	0	0	1
335	337	-1	0	0	1
338	339	-1	0	0	1
338	340	-1	0	0	1
341	339	-1	0	0	1
340	342	-1	0	0	1
343	344	-1	0	0	1
343	345	-1	0	0	1
346	344	-1	0	0	1
345	347	-1	0	0	1
348	349	-1	0	0	1
348	350	-1	0	0	1
351	349	-1	0	0	1
350	352	-1	0	0	1
353	354	-1	0	0	1
353	355	-1	0	0	1
356	354	-1	0	0	1
355	357	-1	0	0	1
358	359	-1	0	0	1
358	360	-1	0	0	1
361	359	-1	0	0	1
360	362	-1	0	0	1
363	364	-1	0	0	1
363	365	-1	0	0	1
366	364	-1	0	0	1
365	367	-1	0	0	1
368	369	-1	0	0	1